# RIV for MODFLOW, generated by Flopy.
        85         0
        85         0 # stress period 0
         1        25         1   4.4994330E+02   3.6917617E+04   4.4894330E+02
         1        25         2   4.4981390E+02   5.0497707E+04   4.4881390E+02
         1        25         3   4.4964008E+02   5.2913695E+04   4.4864008E+02
         1        25         4   4.4954971E+02   2.0176025E+04   4.4854971E+02
         1        24         4   4.4946930E+02   3.3551344E+04   4.4846930E+02
         1        24         5   4.4933865E+02   5.3727371E+04   4.4833865E+02
         1        24         6   4.4918439E+02   4.9342312E+04   4.4818439E+02
         1        23         6   4.4910394E+02   4.3850581E+03   4.4810394E+02
         1        23         7   4.4894629E+02   5.5196059E+04   4.4794629E+02
         1        23         8   4.4886966E+02   4.1750695E+04   4.4786966E+02
         1        22         8   4.4877444E+02   2.1861584E+04   4.4777444E+02
         1        22         9   4.4865338E+02   5.9016883E+04   4.4765338E+02
         1        21         9   4.4855817E+02   4.5953940E+03   4.4755817E+02
         1        21        10   4.4845609E+02   6.3612277E+04   4.4745609E+02
         1        21        11   4.4834189E+02   1.2670796E+04   4.4734189E+02
         1        20        11   4.4824667E+02   5.0941480E+04   4.4724667E+02
         1        20        12   4.4808289E+02   2.9814123E+04   4.4708289E+02
         1        19        12   4.4802643E+02   3.6571184E+04   4.4702643E+02
         1        19        13   4.4784714E+02   6.0585949E+04   4.4684714E+02
         1        19        14   4.4771771E+02   4.8506730E+04   4.4671771E+02
         1        20        14   4.4763297E+02   8.1109897E+03   4.4663297E+02
         1        20        15   4.4753610E+02   5.6617723E+04   4.4653610E+02
         1        20        16   4.4738870E+02   4.1845824E+04   4.4638870E+02
         1        21        16   4.4730396E+02   1.4771898E+04   4.4630396E+02
         1        21        17   4.4719711E+02   5.6617723E+04   4.4619711E+02
         1        21        18   4.4699896E+02   5.9305992E+04   4.4599896E+02
         1        21        19   4.4688901E+02   3.0598004E+04   4.4588901E+02
         1        20        19   4.4679861E+02   2.9809736E+04   4.4579861E+02
         1        20        20   4.4666522E+02   5.9291680E+04   4.4566522E+02
         1        19        20   4.4657480E+02   1.1160603E+03   4.4557480E+02
         1        19        21   4.4648273E+02   6.0407742E+04   4.4548273E+02
         1        19        22   4.4635101E+02   2.7577617E+04   4.4535101E+02
         1        18        22   4.4626062E+02   3.2830125E+04   4.4526062E+02
         1        18        23   4.4612723E+02   5.6271293E+04   4.4512723E+02
         1        17        23   4.4603683E+02   4.1364473E+03   4.4503683E+02
         1        17        24   4.4591187E+02   5.5849664E+04   4.4491187E+02
         1        17        25   4.4578418E+02   5.2949070E+04   4.4478418E+02
         1        17        26   4.4567572E+02   1.9520547E+04   4.4467572E+02
         1        16        26   4.4559647E+02   3.3428527E+04   4.4459647E+02
         1        16        27   4.4540442E+02   5.2513211E+04   4.4440442E+02
         1        16        28   4.4531320E+02   5.0772578E+04   4.4431320E+02
         1        16        29   4.4516122E+02   5.0772578E+04   4.4416122E+02
         1        16        30   4.4501486E+02   2.4900051E+04   4.4401486E+02
         1        17        30   4.4496198E+02   3.2534193E+04   4.4396198E+02
         1        17        31   4.4483749E+02   5.0630461E+04   4.4383749E+02
         1        18        31   4.4474384E+02   1.1941040E+04   4.4374384E+02
         1        18        32   4.4463232E+02   6.2571500E+04   4.4363232E+02
         1        18        33   4.4452570E+02   8.6521123E+03   4.4352570E+02
         1        19        33   4.4443204E+02   5.3919391E+04   4.4343204E+02
         1        19        34   4.4430756E+02   2.9245264E+04   4.4330756E+02
         1        20        34   4.4421390E+02   3.3326238E+04   4.4321390E+02
         1        20        35   4.4408942E+02   4.9838418E+04   4.4308942E+02
         1        21        35   4.4398752E+02   1.4168372E+04   4.4298752E+02
         1        21        36   4.4388977E+02   5.5206078E+04   4.4288977E+02
         1        22        36   4.4378058E+02   1.7747781E+04   4.4278058E+02
         1        22        37   4.4361105E+02   5.7908203E+04   4.4261105E+02
         1        23        37   4.4356979E+02   7.2679746E+03   4.4256979E+02
         1        23        38   4.4347372E+02   5.6900723E+04   4.4247372E+02
         1        23        39   4.4332782E+02   4.0580363E+04   4.4232782E+02
         1        24        39   4.4324265E+02   1.6320362E+04   4.4224265E+02
         1        24        40   4.4313306E+02   5.6900723E+04   4.4213306E+02
         1        24        41   4.4300070E+02   3.1527973E+04   4.4200070E+02
         1        25        41   4.4290591E+02   2.3399252E+04   4.4190591E+02
         1        25        42   4.4284985E+02   2.2454275E+04   4.4184985E+02
         1        24        42   4.4277457E+02   2.7833945E+04   4.4177457E+02
         1        24        43   4.4265765E+02   5.0288219E+04   4.4165765E+02
         1        24        44   4.4250711E+02   5.0288219E+04   4.4150711E+02
         1        24        45   4.4235657E+02   5.0288219E+04   4.4135657E+02
         1        24        46   4.4216730E+02   5.0626133E+04   4.4116730E+02
         1        24        47   4.4205344E+02   5.0974691E+04   4.4105344E+02
         1        24        48   4.4190082E+02   5.0974691E+04   4.4090082E+02
         1        24        49   4.4179807E+02   1.7679129E+04   4.4079807E+02
         1        23        49   4.4172177E+02   3.3295562E+04   4.4072177E+02
         1        23        50   4.4159564E+02   5.0974691E+04   4.4059564E+02
         1        23        51   4.4144302E+02   5.0974691E+04   4.4044302E+02
         1        23        52   4.4129044E+02   5.0974691E+04   4.4029044E+02
         1        23        53   4.4113547E+02   5.1572570E+04   4.4013547E+02
         1        23        54   4.4105289E+02   4.5750859E+03   4.4005289E+02
         1        22        54   4.4097568E+02   4.7009301E+04   4.3997568E+02
         1        22        55   4.4082809E+02   5.1584387E+04   4.3982809E+02
         1        22        56   4.4063596E+02   5.1936699E+04   4.3963596E+02
         1        22        57   4.4046558E+02   5.1691648E+04   4.3946558E+02
         1        22        58   4.4036505E+02   5.0525898E+04   4.3936505E+02
         1        22        59   4.4021378E+02   5.0525898E+04   4.3921378E+02
         1        22        60   4.4000000E+02   5.0530777E+04   4.3900000E+02
