# CHD for MODFLOW, generated by Flopy.
        58
        58         0 # stress period 0
         1        11         1   4.5000000E+02   4.5000000E+02
         1        12         1   4.5000000E+02   4.5000000E+02
         1        13         1   4.5000000E+02   4.5000000E+02
         1        14         1   4.5000000E+02   4.5000000E+02
         1        15         1   4.5000000E+02   4.5000000E+02
         1        16         1   4.5000000E+02   4.5000000E+02
         1        17         1   4.5000000E+02   4.5000000E+02
         1        18         1   4.5000000E+02   4.5000000E+02
         1        19         1   4.5000000E+02   4.5000000E+02
         1        20         1   4.5000000E+02   4.5000000E+02
         1        21         1   4.5000000E+02   4.5000000E+02
         1        22         1   4.5000000E+02   4.5000000E+02
         1        23         1   4.5000000E+02   4.5000000E+02
         1        24         1   4.5000000E+02   4.5000000E+02
         1        25         1   4.5000000E+02   4.5000000E+02
         1        26         1   4.5000000E+02   4.5000000E+02
         1        27         1   4.5000000E+02   4.5000000E+02
         1        28         1   4.5000000E+02   4.5000000E+02
         1        29         1   4.5000000E+02   4.5000000E+02
         1        30         1   4.5000000E+02   4.5000000E+02
         1        31         1   4.5000000E+02   4.5000000E+02
         1        32         1   4.5000000E+02   4.5000000E+02
         1        33         1   4.5000000E+02   4.5000000E+02
         1        34         1   4.5000000E+02   4.5000000E+02
         1        35         1   4.5000000E+02   4.5000000E+02
         1        36         1   4.5000000E+02   4.5000000E+02
         1        37         1   4.5000000E+02   4.5000000E+02
         1        38         1   4.5000000E+02   4.5000000E+02
         1        39         1   4.5000000E+02   4.5000000E+02
         1        40         1   4.5000000E+02   4.5000000E+02
         1        13        60   4.4000000E+02   4.4000000E+02
         1        14        60   4.4000000E+02   4.4000000E+02
         1        15        60   4.4000000E+02   4.4000000E+02
         1        16        60   4.4000000E+02   4.4000000E+02
         1        17        60   4.4000000E+02   4.4000000E+02
         1        18        60   4.4000000E+02   4.4000000E+02
         1        19        60   4.4000000E+02   4.4000000E+02
         1        20        60   4.4000000E+02   4.4000000E+02
         1        21        60   4.4000000E+02   4.4000000E+02
         1        22        60   4.4000000E+02   4.4000000E+02
         1        23        60   4.4000000E+02   4.4000000E+02
         1        24        60   4.4000000E+02   4.4000000E+02
         1        25        60   4.4000000E+02   4.4000000E+02
         1        26        60   4.4000000E+02   4.4000000E+02
         1        27        60   4.4000000E+02   4.4000000E+02
         1        28        60   4.4000000E+02   4.4000000E+02
         1        29        60   4.4000000E+02   4.4000000E+02
         1        30        60   4.4000000E+02   4.4000000E+02
         1        31        60   4.4000000E+02   4.4000000E+02
         1        32        60   4.4000000E+02   4.4000000E+02
         1        33        60   4.4000000E+02   4.4000000E+02
         1        34        60   4.4000000E+02   4.4000000E+02
         1        35        60   4.4000000E+02   4.4000000E+02
         1        36        60   4.4000000E+02   4.4000000E+02
         1        37        60   4.4000000E+02   4.4000000E+02
         1        38        60   4.4000000E+02   4.4000000E+02
         1        39        60   4.4000000E+02   4.4000000E+02
         1        40        60   4.4000000E+02   4.4000000E+02
