# RIV: River package file created on 02.08.2016 by ModelMuse version 3.7.1.0.
# RIV for MODFLOW, generated by Flopy.
    85     9 AUXILIARY IFACE # DataSet 2: MXACTC IRIVCB Option
    85     0 # Data Set 5: ITMP NP Stress period 1
     1    25     1  4.499433000000E+002   3.691762000000E+004   4.489433000000E+002      0 # Data Set 6: Layer Row Column Stage Cond Rbot IFACE
     1    25     2  4.498139000000E+002   5.049771000000E+004   4.488139000000E+002      0 # Data Set 6: Layer Row Column Stage Cond Rbot IFACE
     1    25     3  4.496401000000E+002   5.291370000000E+004   4.486401000000E+002      0 # Data Set 6: Layer Row Column Stage Cond Rbot IFACE
     1    24     4  4.494693000000E+002   3.355134000000E+004   4.484693000000E+002      0 # Data Set 6: Layer Row Column Stage Cond Rbot IFACE
     1    25     4  4.495497000000E+002   2.017603000000E+004   4.485497000000E+002      0 # Data Set 6: Layer Row Column Stage Cond Rbot IFACE
     1    24     5  4.493387000000E+002   5.372737000000E+004   4.483387000000E+002      0 # Data Set 6: Layer Row Column Stage Cond Rbot IFACE
     1    23     6  4.491039000000E+002   4.385058000000E+003   4.481039000000E+002      0 # Data Set 6: Layer Row Column Stage Cond Rbot IFACE
     1    24     6  4.491844000000E+002   4.934231000000E+004   4.481844000000E+002      0 # Data Set 6: Layer Row Column Stage Cond Rbot IFACE
     1    23     7  4.489463000000E+002   5.519606000000E+004   4.479463000000E+002      0 # Data Set 6: Layer Row Column Stage Cond Rbot IFACE
     1    22     8  4.487744000000E+002   2.186158000000E+004   4.477744000000E+002      0 # Data Set 6: Layer Row Column Stage Cond Rbot IFACE
     1    23     8  4.488697000000E+002   4.175070000000E+004   4.478697000000E+002      0 # Data Set 6: Layer Row Column Stage Cond Rbot IFACE
     1    21     9  4.485582000000E+002   4.595394000000E+003   4.475582000000E+002      0 # Data Set 6: Layer Row Column Stage Cond Rbot IFACE
     1    22     9  4.486534000000E+002   5.901688000000E+004   4.476534000000E+002      0 # Data Set 6: Layer Row Column Stage Cond Rbot IFACE
     1    21    10  4.484561000000E+002   6.361228000000E+004   4.474561000000E+002      0 # Data Set 6: Layer Row Column Stage Cond Rbot IFACE
     1    20    11  4.482467000000E+002   5.094148000000E+004   4.472467000000E+002      0 # Data Set 6: Layer Row Column Stage Cond Rbot IFACE
     1    21    11  4.483419000000E+002   1.267080000000E+004   4.473419000000E+002      0 # Data Set 6: Layer Row Column Stage Cond Rbot IFACE
     1    19    12  4.480264000000E+002   3.657118000000E+004   4.470264000000E+002      0 # Data Set 6: Layer Row Column Stage Cond Rbot IFACE
     1    20    12  4.480829000000E+002   2.981412000000E+004   4.470829000000E+002      0 # Data Set 6: Layer Row Column Stage Cond Rbot IFACE
     1    19    13  4.478471000000E+002   6.058595000000E+004   4.468471000000E+002      0 # Data Set 6: Layer Row Column Stage Cond Rbot IFACE
     1    19    14  4.477177000000E+002   4.850673000000E+004   4.467177000000E+002      0 # Data Set 6: Layer Row Column Stage Cond Rbot IFACE
     1    20    14  4.476330000000E+002   8.110990000000E+003   4.466330000000E+002      0 # Data Set 6: Layer Row Column Stage Cond Rbot IFACE
     1    20    15  4.475361000000E+002   5.661772000000E+004   4.465361000000E+002      0 # Data Set 6: Layer Row Column Stage Cond Rbot IFACE
     1    20    16  4.473887000000E+002   4.184582000000E+004   4.463887000000E+002      0 # Data Set 6: Layer Row Column Stage Cond Rbot IFACE
     1    21    16  4.473040000000E+002   1.477190000000E+004   4.463040000000E+002      0 # Data Set 6: Layer Row Column Stage Cond Rbot IFACE
     1    21    17  4.471971000000E+002   5.661772000000E+004   4.461971000000E+002      0 # Data Set 6: Layer Row Column Stage Cond Rbot IFACE
     1    21    18  4.469990000000E+002   5.930599000000E+004   4.459990000000E+002      0 # Data Set 6: Layer Row Column Stage Cond Rbot IFACE
     1    20    19  4.467986000000E+002   2.980974000000E+004   4.457986000000E+002      0 # Data Set 6: Layer Row Column Stage Cond Rbot IFACE
     1    21    19  4.468890000000E+002   3.059800000000E+004   4.458890000000E+002      0 # Data Set 6: Layer Row Column Stage Cond Rbot IFACE
     1    19    20  4.465748000000E+002   1.116060000000E+003   4.455748000000E+002      0 # Data Set 6: Layer Row Column Stage Cond Rbot IFACE
     1    20    20  4.466652000000E+002   5.929168000000E+004   4.456652000000E+002      0 # Data Set 6: Layer Row Column Stage Cond Rbot IFACE
     1    19    21  4.464827000000E+002   6.040774000000E+004   4.454827000000E+002      0 # Data Set 6: Layer Row Column Stage Cond Rbot IFACE
     1    18    22  4.462606000000E+002   3.283012000000E+004   4.452606000000E+002      0 # Data Set 6: Layer Row Column Stage Cond Rbot IFACE
     1    19    22  4.463510000000E+002   2.757762000000E+004   4.453510000000E+002      0 # Data Set 6: Layer Row Column Stage Cond Rbot IFACE
     1    17    23  4.460368000000E+002   4.136447000000E+003   4.450368000000E+002      0 # Data Set 6: Layer Row Column Stage Cond Rbot IFACE
     1    18    23  4.461272000000E+002   5.627129000000E+004   4.451272000000E+002      0 # Data Set 6: Layer Row Column Stage Cond Rbot IFACE
     1    17    24  4.459119000000E+002   5.584966000000E+004   4.449119000000E+002      0 # Data Set 6: Layer Row Column Stage Cond Rbot IFACE
     1    17    25  4.457842000000E+002   5.294907000000E+004   4.447842000000E+002      0 # Data Set 6: Layer Row Column Stage Cond Rbot IFACE
     1    16    26  4.455965000000E+002   3.342853000000E+004   4.445965000000E+002      0 # Data Set 6: Layer Row Column Stage Cond Rbot IFACE
     1    17    26  4.456757000000E+002   1.952055000000E+004   4.446757000000E+002      0 # Data Set 6: Layer Row Column Stage Cond Rbot IFACE
     1    16    27  4.454044000000E+002   5.251321000000E+004   4.444044000000E+002      0 # Data Set 6: Layer Row Column Stage Cond Rbot IFACE
     1    16    28  4.453132000000E+002   5.077258000000E+004   4.443132000000E+002      0 # Data Set 6: Layer Row Column Stage Cond Rbot IFACE
     1    16    29  4.451612000000E+002   5.077258000000E+004   4.441612000000E+002      0 # Data Set 6: Layer Row Column Stage Cond Rbot IFACE
     1    16    30  4.450149000000E+002   2.490005000000E+004   4.440149000000E+002      0 # Data Set 6: Layer Row Column Stage Cond Rbot IFACE
     1    17    30  4.449620000000E+002   3.253419000000E+004   4.439620000000E+002      0 # Data Set 6: Layer Row Column Stage Cond Rbot IFACE
     1    17    31  4.448375000000E+002   5.063046000000E+004   4.438375000000E+002      0 # Data Set 6: Layer Row Column Stage Cond Rbot IFACE
     1    18    31  4.447438000000E+002   1.194104000000E+004   4.437438000000E+002      0 # Data Set 6: Layer Row Column Stage Cond Rbot IFACE
     1    18    32  4.446323000000E+002   6.257150000000E+004   4.436323000000E+002      0 # Data Set 6: Layer Row Column Stage Cond Rbot IFACE
     1    18    33  4.445257000000E+002   8.652112000000E+003   4.435257000000E+002      0 # Data Set 6: Layer Row Column Stage Cond Rbot IFACE
     1    19    33  4.444320000000E+002   5.391939000000E+004   4.434320000000E+002      0 # Data Set 6: Layer Row Column Stage Cond Rbot IFACE
     1    19    34  4.443076000000E+002   2.924526000000E+004   4.433076000000E+002      0 # Data Set 6: Layer Row Column Stage Cond Rbot IFACE
     1    20    34  4.442139000000E+002   3.332624000000E+004   4.432139000000E+002      0 # Data Set 6: Layer Row Column Stage Cond Rbot IFACE
     1    20    35  4.440894000000E+002   4.983842000000E+004   4.430894000000E+002      0 # Data Set 6: Layer Row Column Stage Cond Rbot IFACE
     1    21    35  4.439875000000E+002   1.416837000000E+004   4.429875000000E+002      0 # Data Set 6: Layer Row Column Stage Cond Rbot IFACE
     1    21    36  4.438898000000E+002   5.520608000000E+004   4.428898000000E+002      0 # Data Set 6: Layer Row Column Stage Cond Rbot IFACE
     1    22    36  4.437806000000E+002   1.774778000000E+004   4.427806000000E+002      0 # Data Set 6: Layer Row Column Stage Cond Rbot IFACE
     1    22    37  4.436111000000E+002   5.790820000000E+004   4.426111000000E+002      0 # Data Set 6: Layer Row Column Stage Cond Rbot IFACE
     1    23    37  4.435698000000E+002   7.267975000000E+003   4.425698000000E+002      0 # Data Set 6: Layer Row Column Stage Cond Rbot IFACE
     1    23    38  4.434737000000E+002   5.690072000000E+004   4.424737000000E+002      0 # Data Set 6: Layer Row Column Stage Cond Rbot IFACE
     1    23    39  4.433278000000E+002   4.058036000000E+004   4.423278000000E+002      0 # Data Set 6: Layer Row Column Stage Cond Rbot IFACE
     1    24    39  4.432426000000E+002   1.632036000000E+004   4.422426000000E+002      0 # Data Set 6: Layer Row Column Stage Cond Rbot IFACE
     1    24    40  4.431331000000E+002   5.690072000000E+004   4.421331000000E+002      0 # Data Set 6: Layer Row Column Stage Cond Rbot IFACE
     1    24    41  4.430007000000E+002   3.152797000000E+004   4.420007000000E+002      0 # Data Set 6: Layer Row Column Stage Cond Rbot IFACE
     1    25    41  4.429059000000E+002   2.339925000000E+004   4.419059000000E+002      0 # Data Set 6: Layer Row Column Stage Cond Rbot IFACE
     1    24    42  4.427746000000E+002   2.783395000000E+004   4.417746000000E+002      0 # Data Set 6: Layer Row Column Stage Cond Rbot IFACE
     1    25    42  4.428499000000E+002   2.245428000000E+004   4.418499000000E+002      0 # Data Set 6: Layer Row Column Stage Cond Rbot IFACE
     1    24    43  4.426577000000E+002   5.028822000000E+004   4.416577000000E+002      0 # Data Set 6: Layer Row Column Stage Cond Rbot IFACE
     1    24    44  4.425071000000E+002   5.028822000000E+004   4.415071000000E+002      0 # Data Set 6: Layer Row Column Stage Cond Rbot IFACE
     1    24    45  4.423566000000E+002   5.028822000000E+004   4.413566000000E+002      0 # Data Set 6: Layer Row Column Stage Cond Rbot IFACE
     1    24    46  4.421673000000E+002   5.062613000000E+004   4.411673000000E+002      0 # Data Set 6: Layer Row Column Stage Cond Rbot IFACE
     1    24    47  4.420534000000E+002   5.097469000000E+004   4.410534000000E+002      0 # Data Set 6: Layer Row Column Stage Cond Rbot IFACE
     1    24    48  4.419008000000E+002   5.097469000000E+004   4.409008000000E+002      0 # Data Set 6: Layer Row Column Stage Cond Rbot IFACE
     1    23    49  4.417218000000E+002   3.329556000000E+004   4.407218000000E+002      0 # Data Set 6: Layer Row Column Stage Cond Rbot IFACE
     1    24    49  4.417981000000E+002   1.767913000000E+004   4.407981000000E+002      0 # Data Set 6: Layer Row Column Stage Cond Rbot IFACE
     1    23    50  4.415956000000E+002   5.097469000000E+004   4.405956000000E+002      0 # Data Set 6: Layer Row Column Stage Cond Rbot IFACE
     1    23    51  4.414430000000E+002   5.097469000000E+004   4.404430000000E+002      0 # Data Set 6: Layer Row Column Stage Cond Rbot IFACE
     1    23    52  4.412904000000E+002   5.097469000000E+004   4.402904000000E+002      0 # Data Set 6: Layer Row Column Stage Cond Rbot IFACE
     1    23    53  4.411355000000E+002   5.157257000000E+004   4.401355000000E+002      0 # Data Set 6: Layer Row Column Stage Cond Rbot IFACE
     1    22    54  4.409757000000E+002   4.700930000000E+004   4.399757000000E+002      0 # Data Set 6: Layer Row Column Stage Cond Rbot IFACE
     1    23    54  4.410529000000E+002   4.575086000000E+003   4.400529000000E+002      0 # Data Set 6: Layer Row Column Stage Cond Rbot IFACE
     1    22    55  4.408281000000E+002   5.158439000000E+004   4.398281000000E+002      0 # Data Set 6: Layer Row Column Stage Cond Rbot IFACE
     1    22    56  4.406360000000E+002   5.193670000000E+004   4.396360000000E+002      0 # Data Set 6: Layer Row Column Stage Cond Rbot IFACE
     1    22    57  4.404656000000E+002   5.169165000000E+004   4.394656000000E+002      0 # Data Set 6: Layer Row Column Stage Cond Rbot IFACE
     1    22    58  4.403651000000E+002   5.052590000000E+004   4.393651000000E+002      0 # Data Set 6: Layer Row Column Stage Cond Rbot IFACE
     1    22    59  4.402138000000E+002   5.052590000000E+004   4.392138000000E+002      0 # Data Set 6: Layer Row Column Stage Cond Rbot IFACE
     1    22    60  4.400000000000E+002   5.053078000000E+004   4.390000000000E+002      0 # Data Set 6: Layer Row Column Stage Cond Rbot IFACE
